ROMS/TOMS Framework: Apr 25, 2022
===================

Copyright (c) 2002-2022 The ROMS/TOMS Group
  Licensed under a MIT/X style license
  See License_ROMS.txt

svn: $HeadURL: https://www.myroms.org/svn/src/trunk/ROMS/Version $
svn: $LastChangedBy: arango $
svn: $LastChangedRevision: 1123 $
svn: $LastChangedDate: 2022-04-26 00:10:19 +0000 (Tue, 26 Apr 2022) $

